# Force Fields
neighbor			2.0 bin
neigh_modify		delay 0 every 1 check yes
special_bonds		lj/coul 0.0 0.0 0.5
bond_style		    harmonic
angle_style		    harmonic
dihedral_style      fourier
improper_style      cvff
pair_style		    lj/cut/coul/long 12.0
kspace_style        pppm 1.0e-4

# Atom Definitions
read_restart		../min/restart.min
  restoring atom style full from restart
  orthogonal box = (-0.25 -0.25 -0.25) to (50.25 50.25 50.25)
  restoring pair style lj/cut/coul/long from restart
  restoring bond style harmonic from restart
  restoring angle style harmonic from restart
  restoring dihedral style fourier from restart
  restoring improper style cvff from restart
  10479 atoms
  9789 bonds
  17016 angles
  13995 dihedrals
  read_restart CPU = 0.00994992 secs

# Settings
velocity            all create 298.15 150000
fix 			    1 all npt temp 298.15 298.15 100.0 iso 1.0 1.0 1000.0
thermo			    1000
thermo_style 		custom step cpu temp press vol etotal ke pe ebond eangle edihed eimp epair evdwl ecoul elong fmax fnorm lx density
timestep 			1.0
reset_timestep		0
dump 			    1 all custom 50000 dump.nvt.*.dump id mol type mass q x y z xu yu zu ix iy iz vx vy vz fx fy fz
restart             100 restart.npt_r restart.npt_r
run 				2000000
PPPM initialization ...
  G vector (1/distance) = 0.192254
  grid = 15 15 15
  stencil order = 5
  estimated absolute RMS force accuracy = 0.0158916
  estimated relative force accuracy = 4.78571e-05
  3d grid and FFT values/proc = 1352 192
  update every 1 steps, delay 0 steps, check yes
Step CPU Temp Press Volume TotEng KinEng PotEng E_bond E_angle E_dihed E_impro E_pair E_vdwl E_coul E_long Fmax Fnorm Lx Density
0            0       298.15    2130.5085    128787.62    661.85524    9312.0974   -8650.2422    92.287175    408.52296    198.05786            0   -9349.1102   -4189.0752    10478.892   -15638.927    10.160793     44.05842         50.5   0.93546946
Averages over the last 1001 of 2001 rows, steps 1000000 to 2000000:
Temp Press Volume TotEng KinEng PotEng E_bond E_angle E_dihed E_impro E_pair E_vdwl E_coul E_long Fmax Fnorm Lx Density
298.308 14.8468 120864 8709.94 9317.04 -607.099 3098.14 4564.33 874.742 0 -9144.31 -3068.18 9694.91 -15771 113.831 3314.5 49.442 0.996844
Loop time of 14280.9 on 28 procs for 2000000 steps with 10479 atoms

unfix 				1

write_restart	    restart.npt
PPPM initialization ...
  G vector (1/distance) = 0.193985
  grid = 15 15 15
  stencil order = 5
  estimated absolute RMS force accuracy = 0.0149283
  estimated relative force accuracy = 4.4956e-05
  3d grid and FFT values/proc = 1352 192
write_data 		    data.mixture_npt
PPPM initialization ...
  G vector (1/distance) = 0.193985
  grid = 15 15 15
  stencil order = 5
  estimated absolute RMS force accuracy = 0.0149283
  estimated relative force accuracy = 4.4956e-05
  3d grid and FFT values/proc = 1352 192
